228
Properties=species:S:1:pos:R:3 a=T pbc="F F F"
C     -12.54438104       5.42906407      -0.00041200 
C     -11.32659927       4.73483264      -0.00032500 
C     -12.57664522       6.81471691      -0.00041400 
C     -11.39820419       7.54433843      -0.00032400 
C     -10.15163293       6.90324102      -0.00023300 
C     -10.11513382       5.48092758      -0.00024000 
C     -11.27296752       3.27780489      -0.00031300 
C     -10.01773226       2.60923984      -0.00023200 
C      -8.81210886       3.37876612      -0.00016200 
C      -8.85168925       4.79632301      -0.00016200 
C      -7.64252777       5.53724106      -0.00008200 
C      -7.65620849       6.96745480      -0.00006000 
C      -8.90173298       7.65393970      -0.00012800 
C      -8.88245477       9.05256067      -0.00008900 
C      -7.69783816       9.75555262       0.00002900 
C      -6.45319865       9.11135277       0.00010500 
C      -6.42561423       7.69916181       0.00003800 
C      -5.16108882       6.98899075       0.00007500 
C      -5.18433268       5.61643158       0.00006300 
C      -6.39086417       4.85379366      -0.00000900 
C      -7.55606729       2.70339991      -0.00008500 
C      -6.37463627       3.45411711      -0.00001300 
C      -7.53611816       1.27618725      -0.00008200 
C      -8.67327709       0.50721099      -0.00014500 
C      -9.95873144       1.17875816      -0.00021700 
C     -11.15684660       0.43071826      -0.00026600 
C     -12.37617325       1.12163372      -0.00034900 
C     -12.43412382       2.49791662      -0.00037400 
H     -13.48192821       4.89144589      -0.00048100 
H     -13.52978995       7.33118627      -0.00048400 
H     -11.45977451       8.62333756      -0.00032600 
H      -9.80612449       9.61384464      -0.00014300 
H      -7.75448448      10.83425647       0.00005400 
H      -4.25935041       5.05339855       0.00011200 
H      -5.42024928       2.93697693       0.00004400 
H      -6.55933970       0.80874263      -0.00002000 
H     -13.31078399       0.58004852      -0.00039700 
H     -13.40871876       2.96521438      -0.00043700 
C     -10.97388827      -8.14921986      -0.00005400 
C      -9.76377915      -7.44170150      -0.00004800 
C     -12.19003304      -7.48434080      -0.00009000 
C     -12.23269135      -6.09897012      -0.00012300 
C     -11.05420197      -5.33995095      -0.00012000 
C      -9.80419042      -6.01949450      -0.00008100 
C      -8.47513835      -8.12376641      -0.00001100 
C      -7.26853024      -7.37098066      -0.00000900 
C      -7.33215270      -5.94211734      -0.00003800 
C      -8.57958514      -5.26761877      -0.00007300 
C      -8.61666116      -3.84999489      -0.00009900 
C      -9.86210568      -3.14673915      -0.00014100 
C     -11.07938033      -3.88215315      -0.00015600 
C     -12.28098274      -3.16614698      -0.00020600 
C     -12.29748589      -1.78874319      -0.00024100 
C     -11.11727432      -1.03295240      -0.00022600 
C      -9.88048823      -1.71515941      -0.00016900 
C      -8.63319844      -0.97513386      -0.00014100 
C      -7.45614881      -1.68154058      -0.00010700 
C      -7.39894915      -3.10774601      -0.00008800 
C      -6.11925021      -5.19203446      -0.00003100 
C      -6.17867842      -3.79352721      -0.00005500 
C      -4.87327178      -5.88836137       0.00000000 
C      -4.77589321      -7.25765706       0.00002500 
C      -6.00019455      -8.03512165       0.00002300 
C      -5.95142758      -9.44673961       0.00005400 
C      -7.15943687     -10.15725438       0.00005600 
C      -8.38031050      -9.51930264       0.00002400 
H     -10.97706390      -9.22996967      -0.00003000 
H     -13.11387885      -8.05155876      -0.00009200 
H     -13.19791946      -5.61279591      -0.00014900 
H     -13.22890303      -3.68542629      -0.00021900 
H     -13.25999559      -1.29844923      -0.00027800 
H      -6.50605735      -1.16199850      -0.00009300 
H      -5.25362971      -3.22557128      -0.00004700 
H      -3.98006568      -5.27616783       0.00000200 
H      -7.15770698     -11.23744360       0.00008200 
H      -9.27230045     -10.12967725       0.00002800 
C       1.57048404     -13.57826912       0.00022800 
C       1.56281312     -12.17652248       0.00019700 
C       0.38660596     -14.29903708       0.00023100 
C      -0.83448750     -13.64328946       0.00020300 
C      -0.90256483     -12.24317828       0.00017100 
C       0.31094328     -11.50041204       0.00016900 
C       2.79781982     -11.40156346       0.00019400 
C       2.74919548      -9.98021491       0.00015900 
C       1.47995361      -9.32087821       0.00013300 
C       0.27210473     -10.06393480       0.00013700 
C      -0.97413079      -9.38722915       0.00011100 
C      -2.20589043     -10.11418551       0.00011200 
C      -2.17764058     -11.53608440       0.00014000 
C      -3.39851938     -12.21870137       0.00013700 
C      -4.59963841     -11.54429262       0.00010900 
C      -4.66406553     -10.14430405       0.00008300 
C      -3.45486559      -9.41431694       0.00008300 
C      -3.47210412      -7.96411907       0.00005500 
C      -2.27181171      -7.29796754       0.00005600 
C      -1.00808155      -7.96153495       0.00008200 
C       1.43681625      -7.89543229       0.00010200 
C       0.19595903      -7.24764242       0.00007900 
C       2.66284421      -7.16455045       0.00009300 
C       3.89737773      -7.76486953       0.00011300 
C       3.95852784      -9.21388003       0.00015200 
C       5.20540888      -9.87745899       0.00018300 
C       5.21672370     -11.27888399       0.00021900 
C       4.05380197     -12.01721124       0.00022400 
H       2.50485084     -14.12139732       0.00024900 
H       0.41590232     -15.38271917       0.00025500 
H      -1.73814394     -14.23611047       0.00020700 
H      -3.42276381     -13.29926319       0.00015700 
H      -5.50549907     -12.13270575       0.00010800 
H      -2.24670270      -6.21539441       0.00003600 
H       0.16662048      -6.16254930       0.00005600 
H       2.57927169      -6.08491428       0.00006800 
H       6.15305627     -11.81748830       0.00024300 
H       4.13640489     -13.09488443       0.00025300 
C      12.54438105      -5.42906408       0.00006900 
C      11.32659928      -4.73483264       0.00003000 
C      12.57664531      -6.81471592       0.00013300 
C      11.39820519      -7.54433853       0.00015900 
C      10.15163293      -6.90324103       0.00012300 
C      10.11513382      -5.48092759       0.00006200 
C      11.27296753      -3.27780490      -0.00004200 
C      10.01773126      -2.60923976      -0.00006400 
C       8.81210887      -3.37876612      -0.00002400 
C       8.85168926      -4.79632301       0.00003200 
C       7.64252777      -5.53724106       0.00005800 
C       7.65620849      -6.96745481       0.00011100 
C       8.90173298      -7.65393970       0.00014500 
C       8.88245477      -9.05256067       0.00019700 
C       7.69783816      -9.75555263       0.00021100 
C       6.45319856      -9.11135377       0.00017500 
C       6.42561523      -7.69916191       0.00012800 
C       5.16108882      -6.98899075       0.00009600 
C       5.18433269      -5.61643159       0.00004900 
C       6.39086409      -4.85379466       0.00002800 
C       7.55606729      -2.70339991      -0.00004800 
C       6.37463519      -3.45411803      -0.00002200 
C       7.53611716      -1.27618717      -0.00009600 
C       8.67327609      -0.50721091      -0.00012700 
C       9.95873144      -1.17875817      -0.00012900 
C      11.15684660      -0.43071827      -0.00019800 
C      12.37617326      -1.12163373      -0.00017100 
C      12.43412382      -2.49791663      -0.00009200 
H      13.48192821      -4.89144590       0.00004900 
H      13.52978995      -7.33118627       0.00016300 
H      11.45977451      -8.62333756       0.00020800 
H       9.80612449      -9.61384465       0.00022600 
H       7.75448449     -10.83425647       0.00025100 
H       4.25935032      -5.05339955       0.00002400 
H       5.42024919      -2.93697793      -0.00004100 
H       6.55933962      -0.80874363      -0.00010800 
H      13.31078399      -0.58004853      -0.00020500 
H      13.40871876      -2.96521438      -0.00007400 
C      10.97388926       8.14921977      -0.00054900 
C       9.76377915       7.44170149      -0.00041400 
C      12.19003395       7.48433971      -0.00065100 
C      12.23269127       6.09896912      -0.00061500 
C      11.05420197       5.33995094      -0.00048200 
C       9.80419042       6.01949449      -0.00038900 
C       8.47513844       8.12376740      -0.00029400 
C       7.26853033       7.37098165      -0.00018300 
C       7.33215271       5.94211733      -0.00017700 
C       8.57958523       5.26761976      -0.00026800 
C       8.61666017       3.84999497      -0.00023600 
C       9.86210468       3.14673923      -0.00031000 
C      11.07938033       3.88215314      -0.00043100 
C      12.28098274       3.16614697      -0.00049100 
C      12.29748589       1.78874319      -0.00042100 
C      11.11727332       1.03295248      -0.00029400 
C       9.88048724       1.71515949      -0.00025500 
C       8.63319745       0.97513394      -0.00015400 
C       7.45614791       1.68154166      -0.00008500 
C       7.39894815       3.10774609      -0.00011800 
C       6.11925022       5.19203446      -0.00006300 
C       6.17867742       3.79352729      -0.00003700 
C       4.87327078       5.88836146       0.00002100 
C       4.77589330       7.25765805       0.00000800 
C       6.00019455       8.03512165      -0.00006800 
C       5.95142767       9.44674060      -0.00002000 
C       7.15943687      10.15725438      -0.00014100 
C       8.38031050       9.51930263      -0.00027900 
H      10.97706581       9.22996849      -0.00057800 
H      13.11387968       8.05155668      -0.00075600 
H      13.19791929       5.61279391      -0.00069300 
H      13.22890204       3.68542637      -0.00058600 
H      13.25999460       1.29844931      -0.00047100 
H       6.50605736       1.16199849       0.00000600 
H       5.25362980       3.22557227       0.00005100 
H       3.98006568       5.27616783       0.00010300 
H       7.15770698      11.23744359      -0.00013500 
H       9.27229954      10.12967833      -0.00036600 
C      -1.57048512      13.57826820       0.00072000 
C      -1.56281311      12.17652248       0.00055900 
C      -0.38660695      14.29903717       0.00079100 
C       0.83448651      13.64328954       0.00069700 
C       0.90256483      12.24317828       0.00053600 
C      -0.31094328      11.50041203       0.00047600 
C      -2.79781982      11.40156345       0.00047000 
C      -2.74919547       9.98021490       0.00032700 
C      -1.47995361       9.32087821       0.00026700 
C      -0.27210473      10.06393480       0.00033000 
C       0.97413079       9.38722915       0.00024600 
C       2.20589052      10.11418650       0.00028200 
C       2.17764059      11.53608440       0.00042100 
C       3.39851939      12.21870136       0.00043800 
C       4.59963850      11.54429361       0.00030300 
C       4.66406553      10.14430404       0.00015300 
C       3.45486568       9.41431793       0.00017000 
C       3.47210420       7.96412006       0.00006700 
C       2.27181279       7.29796844       0.00002800 
C       1.00808155       7.96153495       0.00010800 
C      -1.43681526       7.89543220       0.00012700 
C      -0.19595803       7.24764233       0.00005400 
C      -2.66284330       7.16454936       0.00006600 
C      -3.89737673       7.76486943       0.00012300 
C      -3.95852783       9.21388003       0.00023600 
C      -5.20540788       9.87745890       0.00025100 
C      -5.21672270      11.27888390       0.00040300 
C      -4.05380197      12.01721124       0.00051400 
H      -2.50485301      14.12139549       0.00079300 
H      -0.41590431      15.38271934       0.00091800 
H       1.73814295      14.23611056       0.00075300 
H       3.42276381      13.29926319       0.00054900 
H       5.50549907      12.13270575       0.00032300 
H       2.24670270       6.21539441      -0.00007300 
H      -0.16661948       6.16254920      -0.00005000 
H      -2.57927168       6.08491427      -0.00003800 
H      -6.15305527      11.81748821       0.00044300 
H      -4.13640389      13.09488434       0.00062800 
