228
Properties=species:S:1:pos:R:3 a=T pbc="F F F"
C      -12.39796606       5.75557728      -0.00041200
C      -11.19877446       5.02970593      -0.00032500
C      -12.39394703       7.14159987      -0.00041400
C      -11.19681055       7.84012337      -0.00032400
C       -9.96744844       7.16661422      -0.00023300
C       -9.96819366       5.74383274      -0.00024000
C      -11.18330163       3.57177356      -0.00031300
C       -9.94599750       2.87057938      -0.00023200
C       -8.72064338       3.60828242      -0.00016200
C       -8.72310290       5.02638964      -0.00016200
C       -7.49496079       5.73540164      -0.00008200
C       -7.47119819       7.16548340      -0.00006000
C       -8.69832579       7.88433709      -0.00012800
C       -8.64244256       9.28197414      -0.00008900
C       -7.43982971       9.95371555       0.00002900
C       -6.21247989       9.27715558       0.00010500
C       -6.22187177       7.86472647       0.00003800
C       -4.97636979       7.12169735       0.00007500
C       -5.03553510       5.75021698       0.00006300
C       -6.26161667       5.01942371      -0.00000900
C       -7.48271125       2.90026830      -0.00008500
C       -6.28203360       3.61980199      -0.00001300
C       -7.50012903       1.47302251      -0.00008200
C       -8.65702774       0.73407711      -0.00014500
C       -9.92446254       1.43904343      -0.00021700
C      -11.14174854       0.72262286      -0.00026600
C      -12.34257130       1.44521981      -0.00034900
C      -12.36447512       2.82254806      -0.00037400
H      -13.34926516       5.24268545      -0.00048100
H      -13.33324554       7.68284267      -0.00048400
H      -11.23011487       8.92036448      -0.00032600
H       -9.55110306       9.86724463      -0.00014300
H       -7.46821944      11.03353258       0.00005400
H       -4.12560828       5.16316367       0.00011200
H       -5.34151080       3.07785609       0.00004400
H       -6.53592156       0.98016899      -0.00002000
H      -13.29103882       0.92828546      -0.00039700
H      -13.32650366       3.31519761      -0.00043700
C      -11.18344950      -7.85916442      -0.00005400
C       -9.95523438      -7.18356547      -0.00004800
C      -12.38177302      -7.16267824      -0.00009000
C      -12.38815194      -5.77666563      -0.00012300
C      -11.19019759      -5.04875581      -0.00012000
C       -9.95840276      -5.76078798      -0.00008100
C       -8.68488954      -7.89912934      -0.00001100
C       -7.45898928      -7.17818687      -0.00000900
C       -7.48518665      -5.74814774      -0.00003800
C       -8.71453531      -5.04122633      -0.00007300
C       -8.71448956      -3.62311770      -0.00009900
C       -9.94109821      -2.88750101      -0.00014100
C      -11.17720663      -3.59079847      -0.00015600
C      -12.35965442      -2.84358337      -0.00020600
C      -12.34009569      -1.46621958      -0.00024100
C      -11.14050425      -0.74158212      -0.00022600
C       -9.92200007      -1.45593064      -0.00016900
C       -8.65576609      -0.74880892      -0.00014100
C       -7.49761137      -1.48578514      -0.00010700
C       -7.47776502      -2.91299915      -0.00008800
C       -6.25306491      -5.03007198      -0.00003100
C       -6.27586411      -3.63048832      -0.00005500
C       -5.02574116      -5.75877619       0.00000000
C       -4.96423994      -7.13015173       0.00002500
C       -6.20847340      -7.87530143       0.00002300
C       -6.19667499      -9.28771224       0.00005400
C       -7.42286943      -9.96636153       0.00005600
C       -8.62662507      -9.29666966       0.00002400
H      -11.21491477      -8.93946076      -0.00003000
H      -13.32015029      -7.70551836      -0.00009200
H      -13.34032273      -5.26539129      -0.00014900
H      -13.32084303      -3.33787108      -0.00021900
H      -13.28944116      -0.95089807      -0.00027800
H       -6.53424546      -0.99129159      -0.00009300
H       -5.33626503      -3.08694196      -0.00004700
H       -4.11681578      -5.17017385       0.00000200
H       -7.44941619     -11.04622588       0.00008200
H       -9.53428710      -9.88348553       0.00002800
C        1.21450823     -13.61472667       0.00022800
C        1.24353338     -12.21325957       0.00019700
C        0.01216833     -14.30425732       0.00023100
C       -1.19134122     -13.61676991       0.00020300
C       -1.22274459     -12.21535646       0.00017100
C        0.00979104     -11.50461068       0.00016900
C        2.49840294     -11.47089481       0.00019400
C        2.48700183     -10.04876049       0.00015900
C        1.23545432      -9.35642485       0.00013300
C        0.00856839     -10.06760901       0.00013700
C       -1.21952599      -9.35851261       0.00011100
C       -2.46989304     -10.05297615       0.00011200
C       -2.47887384     -11.47512729       0.00014000
C       -3.71720311     -12.12555146       0.00013700
C       -4.90025658     -11.41993218       0.00010900
C       -4.92801419     -10.01873685       0.00008300
C       -3.70011978      -9.32065305       0.00008300
C       -3.67939065      -7.87050088       0.00005500
C       -2.46207174      -7.23599761       0.00005600
C       -1.21614479      -7.93241823       0.00008200
C        1.22964557      -7.93033819       0.00010200
C        0.00617072      -7.25028844       0.00007900
C        2.47438565      -7.23180047       0.00009300
C        3.69278161      -7.86423016       0.00011300
C        3.71598009      -9.31434484       0.00015200
C        4.94506338     -10.01033595       0.00018300
C        4.91968930     -11.41157691       0.00021900
C        3.73783892     -12.11920941       0.00022400
H        2.13433740     -14.18212762       0.00024900
H        0.01308716     -15.38833495       0.00025500
H       -2.11020625     -14.18573281       0.00020700
H       -3.76972504     -13.20510835       0.00015700
H       -5.82120968     -11.98443101       0.00010800
H       -2.40863287      -6.15445273       0.00003600
H        0.00524665      -6.16479916       0.00005600
H        2.41910335      -6.15034659       0.00006800
H        5.84160199     -11.97450698       0.00024300
H        3.79220333     -13.19867560       0.00025300
C       12.39796607      -5.75557729       0.00006900
C       11.19877447      -5.02970594       0.00003000
C       12.39394714      -7.14159888       0.00013300
C       11.19681155      -7.84012350       0.00015900
C        9.96744844      -7.16661423       0.00012300
C        9.96819366      -5.74383275       0.00006200
C       11.18330164      -3.57177357      -0.00004200
C        9.94599650      -2.87057927      -0.00006400
C        8.72064339      -3.60828242      -0.00002400
C        8.72310291      -5.02638964       0.00003200
C        7.49496079      -5.73540164       0.00005800
C        7.47119819      -7.16548341       0.00011100
C        8.69832579      -7.88433709       0.00014500
C        8.64244256      -9.28197414       0.00019700
C        7.43982971      -9.95371556       0.00021100
C        6.21247977      -9.27715658       0.00017500
C        6.22187277      -7.86472660       0.00012800
C        4.97636979      -7.12169735       0.00009600
C        5.03553511      -5.75021699       0.00004900
C        6.26161657      -5.01942471       0.00002800
C        7.48271126      -2.90026831      -0.00004800
C        6.28203249      -3.61980289      -0.00002200
C        7.50012804      -1.47302240      -0.00009600
C        8.65702674      -0.73407700      -0.00012700
C        9.92446254      -1.43904344      -0.00012900
C       11.14174854      -0.72262287      -0.00019800
C       12.34257131      -1.44521982      -0.00017100
C       12.36447512      -2.82254807      -0.00009200
H       13.34926516      -5.24268546       0.00004900
H       13.33324555      -7.68284267       0.00016300
H       11.23011487      -8.92036448       0.00020800
H        9.55110306      -9.86724464       0.00022600
H        7.46821945     -11.03353258       0.00025100
H        4.12560817      -5.16316467       0.00002400
H        5.34151069      -3.07785708      -0.00004100
H        6.53592146      -0.98016999      -0.00010800
H       13.29103882      -0.92828547      -0.00020500
H       13.32650366      -3.31519761      -0.00007400
C       11.18345049       7.85916430      -0.00054900
C        9.95523438       7.18356546      -0.00041400
C       12.38177390       7.16267712      -0.00065100
C       12.38815183       5.77666463      -0.00061500
C       11.19019759       5.04875580      -0.00048200
C        9.95840277       5.76078797      -0.00038900
C        8.68488966       7.89913033      -0.00029400
C        7.45898939       7.17818786      -0.00018300
C        7.48518666       5.74814773      -0.00017700
C        8.71453543       5.04122732      -0.00026800
C        8.71448858       3.62311780      -0.00023600
C        9.94109721       2.88750112      -0.00031000
C       11.17720663       3.59079846      -0.00043100
C       12.35965442       2.84358336      -0.00049100
C       12.34009569       1.46621958      -0.00042100
C       11.14050325       0.74158222      -0.00029400
C        9.92199909       1.45593074      -0.00025500
C        8.65576510       0.74880902      -0.00015400
C        7.49761050       1.48578624      -0.00008500
C        7.47776402       2.91299926      -0.00011800
C        6.25306492       5.03007198      -0.00006300
C        6.27586311       3.63048842      -0.00003700
C        5.02574017       5.75877631       0.00002100
C        4.96424006       7.13015272       0.00000800
C        6.20847340       7.87530143      -0.00006800
C        6.19667511       9.28771322      -0.00002000
C        7.42286943       9.96636153      -0.00014100
C        8.62662507       9.29666965      -0.00027900
H       11.21491665       8.93945953      -0.00057800
H       13.32015106       7.70551626      -0.00075600
H       13.34032251       5.26538929      -0.00069300
H       13.32084204       3.33787118      -0.00058600
H       13.28944017       0.95089817      -0.00047100
H        6.53424547       0.99129157       0.00000600
H        5.33626515       3.08694295       0.00005100
H        4.11681578       5.17017384       0.00010300
H        7.44941619      11.04622587      -0.00013500
H        9.53428622       9.88348664      -0.00036600
C       -1.21450933      13.61472577       0.00072000
C       -1.24353337      12.21325957       0.00055900
C       -0.01216931      14.30425744       0.00079100
C        1.19134024      13.61677001       0.00069700
C        1.22274459      12.21535645       0.00053600
C       -0.00979104      11.50461067       0.00047600
C       -2.49840294      11.47089480       0.00047000
C       -2.48700182      10.04876048       0.00032700
C       -1.23545432       9.35642485       0.00026700
C       -0.00856839      10.06760901       0.00033000
C        1.21952599       9.35851261       0.00024600
C        2.46989315      10.05297714       0.00028200
C        2.47887385      11.47512729       0.00042100
C        3.71720312      12.12555145       0.00043800
C        4.90025670      11.41993317       0.00030300
C        4.92801419      10.01873684       0.00015300
C        3.70011990       9.32065404       0.00017000
C        3.67939076       7.87050186       0.00006700
C        2.46207284       7.23599848       0.00002800
C        1.21614479       7.93241823       0.00010800
C       -1.22964458       7.93033807       0.00012700
C       -0.00616972       7.25028833       0.00005400
C       -2.47438477       7.23179936       0.00006600
C       -3.69278061       7.86423003       0.00012300
C       -3.71598008       9.31434484       0.00023600
C       -4.94506239      10.01033583       0.00025100
C       -4.91968830      11.41157679       0.00040300
C       -3.73783892      12.11920941       0.00051400
H       -2.13433962      14.18212585       0.00079300
H       -0.01308914      15.38833517       0.00091800
H        2.11020526      14.18573292       0.00075300
H        3.76972504      13.20510835       0.00054900
H        5.82120968      11.98443101       0.00032300
H        2.40863287       6.15445273      -0.00007300
H       -0.00524565       6.16479904      -0.00005000
H       -2.41910334       6.15034658      -0.00003800
H       -5.84160099      11.97450686       0.00044300
H       -3.79220234      13.19867548       0.00062800
